# DDEC6 charges by PACMAN v1.1 (https://github.com/mtap-research/PACMAN-charge/)
data_2016[Er][lcy]3[FSR]1
_chemical_formula_sum              "Er32 H368 C456 N24 O160"
_cell_length_a       29.881
_cell_length_b       29.881
_cell_length_c       29.881
_cell_angle_alpha    90
_cell_angle_beta     90
_cell_angle_gamma    90

_symmetry_space_group_name_H-M    "P 1"
_symmetry_Int_Tables_number       1

loop_
  _symmetry_equiv_pos_as_xyz
  'x, y, z'

loop_
  _atom_site_type_symbol
  _atom_site_label
  _atom_site_symmetry_multiplicity
  _atom_site_fract_x
  _atom_site_fract_y
  _atom_site_fract_z
  _atom_site_occupancy
  _atom_site_charge
Er  Er1       1.0  0.75684  0.81877  0.85861  1.0000 2.1428092355
Er  Er2       1.0  0.74316  0.18123  0.35861  1.0000 2.1428092355
Er  Er3       1.0  0.25684  0.68123  0.14139  1.0000 2.1428092355
Er  Er4       1.0  0.24316  0.31877  0.64139  1.0000 2.1428092355
Er  Er5       1.0  0.85861  0.75684  0.81877  1.0000 2.1428092355
Er  Er6       1.0  0.81877  0.85861  0.75684  1.0000 2.1428092355
Er  Er7       1.0  0.64139  0.24316  0.31877  1.0000 2.1428092355
Er  Er8       1.0  0.18123  0.35861  0.74316  1.0000 2.1428092355
Er  Er9       1.0  0.35861  0.74316  0.18123  1.0000 2.1428092355
Er  Er10      1.0  0.68123  0.14139  0.25684  1.0000 2.1428092355
Er  Er11      1.0  0.14139  0.25684  0.68123  1.0000 2.1428092355
Er  Er12      1.0  0.31877  0.64139  0.24316  1.0000 2.1428092355
Er  Er13      1.0  0.75237  0.75237  0.75237  1.0000 2.0752378339
Er  Er14      1.0  0.74763  0.24763  0.25237  1.0000 2.0752378339
Er  Er15      1.0  0.25237  0.74763  0.24763  1.0000 2.0752378339
Er  Er16      1.0  0.24763  0.25237  0.74763  1.0000 2.0752378339
Er  Er17      1.0  0.24316  0.18123  0.14139  1.0000 2.1428092355
Er  Er18      1.0  0.25684  0.81877  0.64139  1.0000 2.1428092355
Er  Er19      1.0  0.74316  0.31877  0.85861  1.0000 2.1428092355
Er  Er20      1.0  0.75684  0.68123  0.35861  1.0000 2.1428092355
Er  Er21      1.0  0.14139  0.24316  0.18123  1.0000 2.1428092355
Er  Er22      1.0  0.18123  0.14139  0.24316  1.0000 2.1428092355
Er  Er23      1.0  0.35861  0.75684  0.68123  1.0000 2.1428092355
Er  Er24      1.0  0.81877  0.64139  0.25684  1.0000 2.1428092355
Er  Er25      1.0  0.64139  0.25684  0.81877  1.0000 2.1428092355
Er  Er26      1.0  0.31877  0.85861  0.74316  1.0000 2.1428092355
Er  Er27      1.0  0.85861  0.74316  0.31877  1.0000 2.1428092355
Er  Er28      1.0  0.68123  0.35861  0.75684  1.0000 2.1428092355
Er  Er29      1.0  0.24763  0.24763  0.24763  1.0000 2.0752378339
Er  Er30      1.0  0.25237  0.75237  0.74763  1.0000 2.0752378339
Er  Er31      1.0  0.74763  0.25237  0.75237  1.0000 2.0752378339
Er  Er32      1.0  0.75237  0.74763  0.25237  1.0000 2.0752378339
H   H1        1.0  0.68250  0.72000  0.69710  1.0000 0.2353828428
H   H2        1.0  0.81750  0.28000  0.19710  1.0000 0.2353828428
H   H3        1.0  0.18250  0.78000  0.30290  1.0000 0.2353828428
H   H4        1.0  0.31750  0.22000  0.80290  1.0000 0.2353828428
H   H5        1.0  0.69710  0.68250  0.72000  1.0000 0.2353828428
H   H6        1.0  0.72000  0.69710  0.68250  1.0000 0.2353828428
H   H7        1.0  0.80290  0.31750  0.22000  1.0000 0.2353828428
H   H8        1.0  0.28000  0.19710  0.81750  1.0000 0.2353828428
H   H9        1.0  0.19710  0.81750  0.28000  1.0000 0.2353828428
H   H10       1.0  0.78000  0.30290  0.18250  1.0000 0.2353828428
H   H11       1.0  0.30290  0.18250  0.78000  1.0000 0.2353828428
H   H12       1.0  0.22000  0.80290  0.31750  1.0000 0.2353828428
H   H13       1.0  0.72630  0.83800  0.77020  1.0000 0.3659295375
H   H14       1.0  0.77370  0.16200  0.27020  1.0000 0.3659295375
H   H15       1.0  0.22630  0.66200  0.22980  1.0000 0.3659295375
H   H16       1.0  0.27370  0.33800  0.72980  1.0000 0.3659295375
H   H17       1.0  0.77020  0.72630  0.83800  1.0000 0.3659295375
H   H18       1.0  0.83800  0.77020  0.72630  1.0000 0.3659295375
H   H19       1.0  0.72980  0.27370  0.33800  1.0000 0.3659295375
H   H20       1.0  0.16200  0.27020  0.77370  1.0000 0.3659295375
H   H21       1.0  0.27020  0.77370  0.16200  1.0000 0.3659295375
H   H22       1.0  0.66200  0.22980  0.22630  1.0000 0.3659295375
H   H23       1.0  0.22980  0.22630  0.66200  1.0000 0.3659295375
H   H24       1.0  0.33800  0.72980  0.27370  1.0000 0.3659295375
H   H25       1.0  0.84571  0.84571  0.84571  1.0000 0.3992485115
H   H26       1.0  0.65429  0.15429  0.34571  1.0000 0.3992485115
H   H27       1.0  0.34571  0.65429  0.15429  1.0000 0.3992485115
H   H28       1.0  0.15429  0.34571  0.65429  1.0000 0.3992485115
H   H29       1.0  0.72840  0.85290  0.94240  1.0000 0.3505811248
H   H30       1.0  0.77160  0.14710  0.44240  1.0000 0.3505811248
H   H31       1.0  0.22840  0.64710  0.05760  1.0000 0.3505811248
H   H32       1.0  0.27160  0.35290  0.55760  1.0000 0.3505811248
H   H33       1.0  0.94240  0.72840  0.85290  1.0000 0.3505811248
H   H34       1.0  0.85290  0.94240  0.72840  1.0000 0.3505811248
H   H35       1.0  0.55760  0.27160  0.35290  1.0000 0.3505811248
H   H36       1.0  0.14710  0.44240  0.77160  1.0000 0.3505811248
H   H37       1.0  0.44240  0.77160  0.14710  1.0000 0.3505811248
H   H38       1.0  0.64710  0.05760  0.22840  1.0000 0.3505811248
H   H39       1.0  0.05760  0.22840  0.64710  1.0000 0.3505811248
H   H40       1.0  0.35290  0.55760  0.27160  1.0000 0.3505811248
H   H41       1.0  0.70950  0.81050  0.94040  1.0000 0.3505811248
H   H42       1.0  0.79050  0.18950  0.44040  1.0000 0.3505811248
H   H43       1.0  0.20950  0.68950  0.05960  1.0000 0.3505811248
H   H44       1.0  0.29050  0.31050  0.55960  1.0000 0.3505811248
H   H45       1.0  0.94040  0.70950  0.81050  1.0000 0.3505811248
H   H46       1.0  0.81050  0.94040  0.70950  1.0000 0.3505811248
H   H47       1.0  0.55960  0.29050  0.31050  1.0000 0.3505811248
H   H48       1.0  0.18950  0.44040  0.79050  1.0000 0.3505811248
H   H49       1.0  0.44040  0.79050  0.18950  1.0000 0.3505811248
H   H50       1.0  0.68950  0.05960  0.20950  1.0000 0.3505811248
H   H51       1.0  0.05960  0.20950  0.68950  1.0000 0.3505811248
H   H52       1.0  0.31050  0.55960  0.29050  1.0000 0.3505811248
H   H53       1.0  0.61110  0.80140  0.88120  1.0000 0.1091720869
H   H54       1.0  0.88890  0.19860  0.38120  1.0000 0.1091720869
H   H55       1.0  0.11110  0.69860  0.11880  1.0000 0.1091720869
H   H56       1.0  0.38890  0.30140  0.61880  1.0000 0.1091720869
H   H57       1.0  0.88120  0.61110  0.80140  1.0000 0.1091720869
H   H58       1.0  0.80140  0.88120  0.61110  1.0000 0.1091720869
H   H59       1.0  0.61880  0.38890  0.30140  1.0000 0.1091720869
H   H60       1.0  0.19860  0.38120  0.88890  1.0000 0.1091720869
H   H61       1.0  0.38120  0.88890  0.19860  1.0000 0.1091720869
H   H62       1.0  0.69860  0.11880  0.11110  1.0000 0.1091720869
H   H63       1.0  0.11880  0.11110  0.69860  1.0000 0.1091720869
H   H64       1.0  0.30140  0.61880  0.38890  1.0000 0.1091720869
H   H65       1.0  0.59930  0.74070  0.76220  1.0000 0.0995972945
H   H66       1.0  0.90070  0.25930  0.26220  1.0000 0.0995972945
H   H67       1.0  0.09930  0.75930  0.23780  1.0000 0.0995972945
H   H68       1.0  0.40070  0.24070  0.73780  1.0000 0.0995972945
H   H69       1.0  0.76220  0.59930  0.74070  1.0000 0.0995972945
H   H70       1.0  0.74070  0.76220  0.59930  1.0000 0.0995972945
H   H71       1.0  0.73780  0.40070  0.24070  1.0000 0.0995972945
H   H72       1.0  0.25930  0.26220  0.90070  1.0000 0.0995972945
H   H73       1.0  0.26220  0.90070  0.25930  1.0000 0.0995972945
H   H74       1.0  0.75930  0.23780  0.09930  1.0000 0.0995972945
H   H75       1.0  0.23780  0.09930  0.75930  1.0000 0.0995972945
H   H76       1.0  0.24070  0.73780  0.40070  1.0000 0.0995972945
H   H77       1.0  0.53530  0.79220  0.89330  1.0000 0.1091720869
H   H78       1.0  0.96470  0.20780  0.39330  1.0000 0.1091720869
H   H79       1.0  0.03530  0.70780  0.10670  1.0000 0.1091720869
H   H80       1.0  0.46470  0.29220  0.60670  1.0000 0.1091720869
H   H81       1.0  0.89330  0.53530  0.79220  1.0000 0.1091720869
H   H82       1.0  0.79220  0.89330  0.53530  1.0000 0.1091720869
H   H83       1.0  0.60670  0.46470  0.29220  1.0000 0.1091720869
H   H84       1.0  0.20780  0.39330  0.96470  1.0000 0.1091720869
H   H85       1.0  0.39330  0.96470  0.20780  1.0000 0.1091720869
H   H86       1.0  0.70780  0.10670  0.03530  1.0000 0.1091720869
H   H87       1.0  0.10670  0.03530  0.70780  1.0000 0.1091720869
H   H88       1.0  0.29220  0.60670  0.46470  1.0000 0.1091720869
H   H89       1.0  0.52380  0.73030  0.77300  1.0000 0.0995972945
H   H90       1.0  0.97620  0.26970  0.27300  1.0000 0.0995972945
H   H91       1.0  0.02380  0.76970  0.22700  1.0000 0.0995972945
H   H92       1.0  0.47620  0.23030  0.72700  1.0000 0.0995972945
H   H93       1.0  0.77300  0.52380  0.73030  1.0000 0.0995972945
H   H94       1.0  0.73030  0.77300  0.52380  1.0000 0.0995972945
H   H95       1.0  0.72700  0.47620  0.23030  1.0000 0.0995972945
H   H96       1.0  0.26970  0.27300  0.97620  1.0000 0.0995972945
H   H97       1.0  0.27300  0.97620  0.26970  1.0000 0.0995972945
H   H98       1.0  0.76970  0.22700  0.02380  1.0000 0.0995972945
H   H99       1.0  0.22700  0.02380  0.76970  1.0000 0.0995972945
H   H100      1.0  0.23030  0.72700  0.47620  1.0000 0.0995972945
H   H101      1.0  0.44970  0.76340  0.78000  1.0000 0.0871009538
H   H102      1.0  0.05030  0.23660  0.28000  1.0000 0.0871009538
H   H103      1.0  0.94970  0.73660  0.22000  1.0000 0.0871009538
H   H104      1.0  0.55030  0.26340  0.72000  1.0000 0.0871009538
H   H105      1.0  0.78000  0.44970  0.76340  1.0000 0.0871009538
H   H106      1.0  0.76340  0.78000  0.44970  1.0000 0.0871009538
H   H107      1.0  0.72000  0.55030  0.26340  1.0000 0.0871009538
H   H108      1.0  0.23660  0.28000  0.05030  1.0000 0.0871009538
H   H109      1.0  0.28000  0.05030  0.23660  1.0000 0.0871009538
H   H110      1.0  0.73660  0.22000  0.94970  1.0000 0.0871009538
H   H111      1.0  0.22000  0.94970  0.73660  1.0000 0.0871009538
H   H112      1.0  0.26340  0.72000  0.55030  1.0000 0.0871009538
H   H113      1.0  0.47480  0.74460  0.90990  1.0000 0.1091720869
H   H114      1.0  0.02520  0.25540  0.40990  1.0000 0.1091720869
H   H115      1.0  0.97480  0.75540  0.09010  1.0000 0.1091720869
H   H116      1.0  0.52520  0.24460  0.59010  1.0000 0.1091720869
H   H117      1.0  0.90990  0.47480  0.74460  1.0000 0.1091720869
H   H118      1.0  0.74460  0.90990  0.47480  1.0000 0.1091720869
H   H119      1.0  0.59010  0.52520  0.24460  1.0000 0.1091720869
H   H120      1.0  0.25540  0.40990  0.02520  1.0000 0.1091720869
H   H121      1.0  0.40990  0.02520  0.25540  1.0000 0.1091720869
H   H122      1.0  0.75540  0.09010  0.97480  1.0000 0.1091720869
H   H123      1.0  0.09010  0.97480  0.75540  1.0000 0.1091720869
H   H124      1.0  0.24460  0.59010  0.52520  1.0000 0.1091720869
H   H125      1.0  0.34970  0.74860  0.86200  1.0000 0.0995972945
H   H126      1.0  0.15030  0.25140  0.36200  1.0000 0.0995972945
H   H127      1.0  0.84970  0.75140  0.13800  1.0000 0.0995972945
H   H128      1.0  0.65030  0.24860  0.63800  1.0000 0.0995972945
H   H129      1.0  0.86200  0.34970  0.74860  1.0000 0.0995972945
H   H130      1.0  0.74860  0.86200  0.34970  1.0000 0.0995972945
H   H131      1.0  0.63800  0.65030  0.24860  1.0000 0.0995972945
H   H132      1.0  0.25140  0.36200  0.15030  1.0000 0.0995972945
H   H133      1.0  0.36200  0.15030  0.25140  1.0000 0.0995972945
H   H134      1.0  0.75140  0.13800  0.84970  1.0000 0.0995972945
H   H135      1.0  0.13800  0.84970  0.75140  1.0000 0.0995972945
H   H136      1.0  0.24860  0.63800  0.65030  1.0000 0.0995972945
H   H137      1.0  0.43830  0.77260  0.97350  1.0000 0.1091720869
H   H138      1.0  0.06170  0.22740  0.47350  1.0000 0.1091720869
H   H139      1.0  0.93830  0.72740  0.02650  1.0000 0.1091720869
H   H140      1.0  0.56170  0.27260  0.52650  1.0000 0.1091720869
H   H141      1.0  0.97350  0.43830  0.77260  1.0000 0.1091720869
H   H142      1.0  0.77260  0.97350  0.43830  1.0000 0.1091720869
H   H143      1.0  0.52650  0.56170  0.27260  1.0000 0.1091720869
H   H144      1.0  0.22740  0.47350  0.06170  1.0000 0.1091720869
H   H145      1.0  0.47350  0.06170  0.22740  1.0000 0.1091720869
H   H146      1.0  0.72740  0.02650  0.93830  1.0000 0.1091720869
H   H147      1.0  0.02650  0.93830  0.72740  1.0000 0.1091720869
H   H148      1.0  0.27260  0.52650  0.56170  1.0000 0.1091720869
H   H149      1.0  0.33350  0.70570  0.92390  1.0000 0.1091720869
H   H150      1.0  0.16650  0.29430  0.42390  1.0000 0.1091720869
H   H151      1.0  0.83350  0.79430  0.07610  1.0000 0.1091720869
H   H152      1.0  0.66650  0.20570  0.57610  1.0000 0.1091720869
H   H153      1.0  0.92390  0.33350  0.70570  1.0000 0.1091720869
H   H154      1.0  0.70570  0.92390  0.33350  1.0000 0.1091720869
H   H155      1.0  0.57610  0.66650  0.20570  1.0000 0.1091720869
H   H156      1.0  0.29430  0.42390  0.16650  1.0000 0.1091720869
H   H157      1.0  0.42390  0.16650  0.29430  1.0000 0.1091720869
H   H158      1.0  0.79430  0.07610  0.83350  1.0000 0.1091720869
H   H159      1.0  0.07610  0.83350  0.79430  1.0000 0.1091720869
H   H160      1.0  0.20570  0.57610  0.66650  1.0000 0.1091720869
H   H161      1.0  0.41130  0.76120  0.04480  1.0000 0.1091720869
H   H162      1.0  0.08870  0.23880  0.54480  1.0000 0.1091720869
H   H163      1.0  0.91130  0.73880  0.95520  1.0000 0.1091720869
H   H164      1.0  0.58870  0.26120  0.45520  1.0000 0.1091720869
H   H165      1.0  0.04480  0.41130  0.76120  1.0000 0.1091720869
H   H166      1.0  0.76120  0.04480  0.41130  1.0000 0.1091720869
H   H167      1.0  0.45520  0.58870  0.26120  1.0000 0.1091720869
H   H168      1.0  0.23880  0.54480  0.08870  1.0000 0.1091720869
H   H169      1.0  0.54480  0.08870  0.23880  1.0000 0.1091720869
H   H170      1.0  0.73880  0.95520  0.91130  1.0000 0.1091720869
H   H171      1.0  0.95520  0.91130  0.73880  1.0000 0.1091720869
H   H172      1.0  0.26120  0.45520  0.58870  1.0000 0.1091720869
H   H173      1.0  0.30560  0.69560  0.99470  1.0000 0.1091720869
H   H174      1.0  0.19440  0.30440  0.49470  1.0000 0.1091720869
H   H175      1.0  0.80560  0.80440  0.00530  1.0000 0.1091720869
H   H176      1.0  0.69440  0.19560  0.50530  1.0000 0.1091720869
H   H177      1.0  0.99470  0.30560  0.69560  1.0000 0.1091720869
H   H178      1.0  0.69560  0.99470  0.30560  1.0000 0.1091720869
H   H179      1.0  0.50530  0.69440  0.19560  1.0000 0.1091720869
H   H180      1.0  0.30440  0.49470  0.19440  1.0000 0.1091720869
H   H181      1.0  0.49470  0.19440  0.30440  1.0000 0.1091720869
H   H182      1.0  0.80440  0.00530  0.80560  1.0000 0.1091720869
H   H183      1.0  0.00530  0.80560  0.80440  1.0000 0.1091720869
H   H184      1.0  0.19560  0.50530  0.69440  1.0000 0.1091720869
H   H185      1.0  0.31750  0.28000  0.30290  1.0000 0.2353828428
H   H186      1.0  0.18250  0.72000  0.80290  1.0000 0.2353828428
H   H187      1.0  0.81750  0.22000  0.69710  1.0000 0.2353828428
H   H188      1.0  0.68250  0.78000  0.19710  1.0000 0.2353828428
H   H189      1.0  0.30290  0.31750  0.28000  1.0000 0.2353828428
H   H190      1.0  0.28000  0.30290  0.31750  1.0000 0.2353828428
H   H191      1.0  0.19710  0.68250  0.78000  1.0000 0.2353828428
H   H192      1.0  0.72000  0.80290  0.18250  1.0000 0.2353828428
H   H193      1.0  0.80290  0.18250  0.72000  1.0000 0.2353828428
H   H194      1.0  0.22000  0.69710  0.81750  1.0000 0.2353828428
H   H195      1.0  0.69710  0.81750  0.22000  1.0000 0.2353828428
H   H196      1.0  0.78000  0.19710  0.68250  1.0000 0.2353828428
H   H197      1.0  0.27370  0.16200  0.22980  1.0000 0.3659295375
H   H198      1.0  0.22630  0.83800  0.72980  1.0000 0.3659295375
H   H199      1.0  0.77370  0.33800  0.77020  1.0000 0.3659295375
H   H200      1.0  0.72630  0.66200  0.27020  1.0000 0.3659295375
H   H201      1.0  0.22980  0.27370  0.16200  1.0000 0.3659295375
H   H202      1.0  0.16200  0.22980  0.27370  1.0000 0.3659295375
H   H203      1.0  0.27020  0.72630  0.66200  1.0000 0.3659295375
H   H204      1.0  0.83800  0.72980  0.22630  1.0000 0.3659295375
H   H205      1.0  0.72980  0.22630  0.83800  1.0000 0.3659295375
H   H206      1.0  0.33800  0.77020  0.77370  1.0000 0.3659295375
H   H207      1.0  0.77020  0.77370  0.33800  1.0000 0.3659295375
H   H208      1.0  0.66200  0.27020  0.72630  1.0000 0.3659295375
H   H209      1.0  0.15429  0.15429  0.15429  1.0000 0.3992485115
H   H210      1.0  0.34571  0.84571  0.65429  1.0000 0.3992485115
H   H211      1.0  0.65429  0.34571  0.84571  1.0000 0.3992485115
H   H212      1.0  0.84571  0.65429  0.34571  1.0000 0.3992485115
H   H213      1.0  0.27160  0.14710  0.05760  1.0000 0.3505811248
H   H214      1.0  0.22840  0.85290  0.55760  1.0000 0.3505811248
H   H215      1.0  0.77160  0.35290  0.94240  1.0000 0.3505811248
H   H216      1.0  0.72840  0.64710  0.44240  1.0000 0.3505811248
H   H217      1.0  0.05760  0.27160  0.14710  1.0000 0.3505811248
H   H218      1.0  0.14710  0.05760  0.27160  1.0000 0.3505811248
H   H219      1.0  0.44240  0.72840  0.64710  1.0000 0.3505811248
H   H220      1.0  0.85290  0.55760  0.22840  1.0000 0.3505811248
H   H221      1.0  0.55760  0.22840  0.85290  1.0000 0.3505811248
H   H222      1.0  0.35290  0.94240  0.77160  1.0000 0.3505811248
H   H223      1.0  0.94240  0.77160  0.35290  1.0000 0.3505811248
H   H224      1.0  0.64710  0.44240  0.72840  1.0000 0.3505811248
H   H225      1.0  0.29050  0.18950  0.05960  1.0000 0.3505811248
H   H226      1.0  0.20950  0.81050  0.55960  1.0000 0.3505811248
H   H227      1.0  0.79050  0.31050  0.94040  1.0000 0.3505811248
H   H228      1.0  0.70950  0.68950  0.44040  1.0000 0.3505811248
H   H229      1.0  0.05960  0.29050  0.18950  1.0000 0.3505811248
H   H230      1.0  0.18950  0.05960  0.29050  1.0000 0.3505811248
H   H231      1.0  0.44040  0.70950  0.68950  1.0000 0.3505811248
H   H232      1.0  0.81050  0.55960  0.20950  1.0000 0.3505811248
H   H233      1.0  0.55960  0.20950  0.81050  1.0000 0.3505811248
H   H234      1.0  0.31050  0.94040  0.79050  1.0000 0.3505811248
H   H235      1.0  0.94040  0.79050  0.31050  1.0000 0.3505811248
H   H236      1.0  0.68950  0.44040  0.70950  1.0000 0.3505811248
H   H237      1.0  0.38890  0.19860  0.11880  1.0000 0.1091720869
H   H238      1.0  0.11110  0.80140  0.61880  1.0000 0.1091720869
H   H239      1.0  0.88890  0.30140  0.88120  1.0000 0.1091720869
H   H240      1.0  0.61110  0.69860  0.38120  1.0000 0.1091720869
H   H241      1.0  0.11880  0.38890  0.19860  1.0000 0.1091720869
H   H242      1.0  0.19860  0.11880  0.38890  1.0000 0.1091720869
H   H243      1.0  0.38120  0.61110  0.69860  1.0000 0.1091720869
H   H244      1.0  0.80140  0.61880  0.11110  1.0000 0.1091720869
H   H245      1.0  0.61880  0.11110  0.80140  1.0000 0.1091720869
H   H246      1.0  0.30140  0.88120  0.88890  1.0000 0.1091720869
H   H247      1.0  0.88120  0.88890  0.30140  1.0000 0.1091720869
H   H248      1.0  0.69860  0.38120  0.61110  1.0000 0.1091720869
H   H249      1.0  0.40070  0.25930  0.23780  1.0000 0.0995972945
H   H250      1.0  0.09930  0.74070  0.73780  1.0000 0.0995972945
H   H251      1.0  0.90070  0.24070  0.76220  1.0000 0.0995972945
H   H252      1.0  0.59930  0.75930  0.26220  1.0000 0.0995972945
H   H253      1.0  0.23780  0.40070  0.25930  1.0000 0.0995972945
H   H254      1.0  0.25930  0.23780  0.40070  1.0000 0.0995972945
H   H255      1.0  0.26220  0.59930  0.75930  1.0000 0.0995972945
H   H256      1.0  0.74070  0.73780  0.09930  1.0000 0.0995972945
H   H257      1.0  0.73780  0.09930  0.74070  1.0000 0.0995972945
H   H258      1.0  0.24070  0.76220  0.90070  1.0000 0.0995972945
H   H259      1.0  0.76220  0.90070  0.24070  1.0000 0.0995972945
H   H260      1.0  0.75930  0.26220  0.59930  1.0000 0.0995972945
H   H261      1.0  0.46470  0.20780  0.10670  1.0000 0.1091720869
H   H262      1.0  0.03530  0.79220  0.60670  1.0000 0.1091720869
H   H263      1.0  0.96470  0.29220  0.89330  1.0000 0.1091720869
H   H264      1.0  0.53530  0.70780  0.39330  1.0000 0.1091720869
H   H265      1.0  0.10670  0.46470  0.20780  1.0000 0.1091720869
H   H266      1.0  0.20780  0.10670  0.46470  1.0000 0.1091720869
H   H267      1.0  0.39330  0.53530  0.70780  1.0000 0.1091720869
H   H268      1.0  0.79220  0.60670  0.03530  1.0000 0.1091720869
H   H269      1.0  0.60670  0.03530  0.79220  1.0000 0.1091720869
H   H270      1.0  0.29220  0.89330  0.96470  1.0000 0.1091720869
H   H271      1.0  0.89330  0.96470  0.29220  1.0000 0.1091720869
H   H272      1.0  0.70780  0.39330  0.53530  1.0000 0.1091720869
H   H273      1.0  0.47620  0.26970  0.22700  1.0000 0.0995972945
H   H274      1.0  0.02380  0.73030  0.72700  1.0000 0.0995972945
H   H275      1.0  0.97620  0.23030  0.77300  1.0000 0.0995972945
H   H276      1.0  0.52380  0.76970  0.27300  1.0000 0.0995972945
H   H277      1.0  0.22700  0.47620  0.26970  1.0000 0.0995972945
H   H278      1.0  0.26970  0.22700  0.47620  1.0000 0.0995972945
H   H279      1.0  0.27300  0.52380  0.76970  1.0000 0.0995972945
H   H280      1.0  0.73030  0.72700  0.02380  1.0000 0.0995972945
H   H281      1.0  0.72700  0.02380  0.73030  1.0000 0.0995972945
H   H282      1.0  0.23030  0.77300  0.97620  1.0000 0.0995972945
H   H283      1.0  0.77300  0.97620  0.23030  1.0000 0.0995972945
H   H284      1.0  0.76970  0.27300  0.52380  1.0000 0.0995972945
H   H285      1.0  0.55030  0.23660  0.22000  1.0000 0.0871009538
H   H286      1.0  0.94970  0.76340  0.72000  1.0000 0.0871009538
H   H287      1.0  0.05030  0.26340  0.78000  1.0000 0.0871009538
H   H288      1.0  0.44970  0.73660  0.28000  1.0000 0.0871009538
H   H289      1.0  0.22000  0.55030  0.23660  1.0000 0.0871009538
H   H290      1.0  0.23660  0.22000  0.55030  1.0000 0.0871009538
H   H291      1.0  0.28000  0.44970  0.73660  1.0000 0.0871009538
H   H292      1.0  0.76340  0.72000  0.94970  1.0000 0.0871009538
H   H293      1.0  0.72000  0.94970  0.76340  1.0000 0.0871009538
H   H294      1.0  0.26340  0.78000  0.05030  1.0000 0.0871009538
H   H295      1.0  0.78000  0.05030  0.26340  1.0000 0.0871009538
H   H296      1.0  0.73660  0.28000  0.44970  1.0000 0.0871009538
H   H297      1.0  0.52520  0.25540  0.09010  1.0000 0.1091720869
H   H298      1.0  0.97480  0.74460  0.59010  1.0000 0.1091720869
H   H299      1.0  0.02520  0.24460  0.90990  1.0000 0.1091720869
H   H300      1.0  0.47480  0.75540  0.40990  1.0000 0.1091720869
H   H301      1.0  0.09010  0.52520  0.25540  1.0000 0.1091720869
H   H302      1.0  0.25540  0.09010  0.52520  1.0000 0.1091720869
H   H303      1.0  0.40990  0.47480  0.75540  1.0000 0.1091720869
H   H304      1.0  0.74460  0.59010  0.97480  1.0000 0.1091720869
H   H305      1.0  0.59010  0.97480  0.74460  1.0000 0.1091720869
H   H306      1.0  0.24460  0.90990  0.02520  1.0000 0.1091720869
H   H307      1.0  0.90990  0.02520  0.24460  1.0000 0.1091720869
H   H308      1.0  0.75540  0.40990  0.47480  1.0000 0.1091720869
H   H309      1.0  0.65030  0.25140  0.13800  1.0000 0.0995972945
H   H310      1.0  0.84970  0.74860  0.63800  1.0000 0.0995972945
H   H311      1.0  0.15030  0.24860  0.86200  1.0000 0.0995972945
H   H312      1.0  0.34970  0.75140  0.36200  1.0000 0.0995972945
H   H313      1.0  0.13800  0.65030  0.25140  1.0000 0.0995972945
H   H314      1.0  0.25140  0.13800  0.65030  1.0000 0.0995972945
H   H315      1.0  0.36200  0.34970  0.75140  1.0000 0.0995972945
H   H316      1.0  0.74860  0.63800  0.84970  1.0000 0.0995972945
H   H317      1.0  0.63800  0.84970  0.74860  1.0000 0.0995972945
H   H318      1.0  0.24860  0.86200  0.15030  1.0000 0.0995972945
H   H319      1.0  0.86200  0.15030  0.24860  1.0000 0.0995972945
H   H320      1.0  0.75140  0.36200  0.34970  1.0000 0.0995972945
H   H321      1.0  0.56170  0.22740  0.02650  1.0000 0.1091720869
H   H322      1.0  0.93830  0.77260  0.52650  1.0000 0.1091720869
H   H323      1.0  0.06170  0.27260  0.97350  1.0000 0.1091720869
H   H324      1.0  0.43830  0.72740  0.47350  1.0000 0.1091720869
H   H325      1.0  0.02650  0.56170  0.22740  1.0000 0.1091720869
H   H326      1.0  0.22740  0.02650  0.56170  1.0000 0.1091720869
H   H327      1.0  0.47350  0.43830  0.72740  1.0000 0.1091720869
H   H328      1.0  0.77260  0.52650  0.93830  1.0000 0.1091720869
H   H329      1.0  0.52650  0.93830  0.77260  1.0000 0.1091720869
H   H330      1.0  0.27260  0.97350  0.06170  1.0000 0.1091720869
H   H331      1.0  0.97350  0.06170  0.27260  1.0000 0.1091720869
H   H332      1.0  0.72740  0.47350  0.43830  1.0000 0.1091720869
H   H333      1.0  0.66650  0.29430  0.07610  1.0000 0.1091720869
H   H334      1.0  0.83350  0.70570  0.57610  1.0000 0.1091720869
H   H335      1.0  0.16650  0.20570  0.92390  1.0000 0.1091720869
H   H336      1.0  0.33350  0.79430  0.42390  1.0000 0.1091720869
H   H337      1.0  0.07610  0.66650  0.29430  1.0000 0.1091720869
H   H338      1.0  0.29430  0.07610  0.66650  1.0000 0.1091720869
H   H339      1.0  0.42390  0.33350  0.79430  1.0000 0.1091720869
H   H340      1.0  0.70570  0.57610  0.83350  1.0000 0.1091720869
H   H341      1.0  0.57610  0.83350  0.70570  1.0000 0.1091720869
H   H342      1.0  0.20570  0.92390  0.16650  1.0000 0.1091720869
H   H343      1.0  0.92390  0.16650  0.20570  1.0000 0.1091720869
H   H344      1.0  0.79430  0.42390  0.33350  1.0000 0.1091720869
H   H345      1.0  0.58870  0.23880  0.95520  1.0000 0.1091720869
H   H346      1.0  0.91130  0.76120  0.45520  1.0000 0.1091720869
H   H347      1.0  0.08870  0.26120  0.04480  1.0000 0.1091720869
H   H348      1.0  0.41130  0.73880  0.54480  1.0000 0.1091720869
H   H349      1.0  0.95520  0.58870  0.23880  1.0000 0.1091720869
H   H350      1.0  0.23880  0.95520  0.58870  1.0000 0.1091720869
H   H351      1.0  0.54480  0.41130  0.73880  1.0000 0.1091720869
H   H352      1.0  0.76120  0.45520  0.91130  1.0000 0.1091720869
H   H353      1.0  0.45520  0.91130  0.76120  1.0000 0.1091720869
H   H354      1.0  0.26120  0.04480  0.08870  1.0000 0.1091720869
H   H355      1.0  0.04480  0.08870  0.26120  1.0000 0.1091720869
H   H356      1.0  0.73880  0.54480  0.41130  1.0000 0.1091720869
H   H357      1.0  0.69440  0.30440  0.00530  1.0000 0.1091720869
H   H358      1.0  0.80560  0.69560  0.50530  1.0000 0.1091720869
H   H359      1.0  0.19440  0.19560  0.99470  1.0000 0.1091720869
H   H360      1.0  0.30560  0.80440  0.49470  1.0000 0.1091720869
H   H361      1.0  0.00530  0.69440  0.30440  1.0000 0.1091720869
H   H362      1.0  0.30440  0.00530  0.69440  1.0000 0.1091720869
H   H363      1.0  0.49470  0.30560  0.80440  1.0000 0.1091720869
H   H364      1.0  0.69560  0.50530  0.80560  1.0000 0.1091720869
H   H365      1.0  0.50530  0.80560  0.69560  1.0000 0.1091720869
H   H366      1.0  0.19560  0.99470  0.19440  1.0000 0.1091720869
H   H367      1.0  0.99470  0.19440  0.19560  1.0000 0.1091720869
H   H368      1.0  0.80440  0.49470  0.30560  1.0000 0.1091720869
C   C1        1.0  0.66372  0.77330  0.81469  1.0000 0.6275229612
C   C2        1.0  0.83628  0.22670  0.31469  1.0000 0.6275229612
C   C3        1.0  0.16372  0.72670  0.18531  1.0000 0.6275229612
C   C4        1.0  0.33628  0.27330  0.68531  1.0000 0.6275229612
C   C5        1.0  0.81469  0.66372  0.77330  1.0000 0.6275229612
C   C6        1.0  0.77330  0.81469  0.66372  1.0000 0.6275229612
C   C7        1.0  0.68531  0.33628  0.27330  1.0000 0.6275229612
C   C8        1.0  0.22670  0.31469  0.83628  1.0000 0.6275229612
C   C9        1.0  0.31469  0.83628  0.22670  1.0000 0.6275229612
C   C10       1.0  0.72670  0.18531  0.16372  1.0000 0.6275229612
C   C11       1.0  0.18531  0.16372  0.72670  1.0000 0.6275229612
C   C12       1.0  0.27330  0.68531  0.33628  1.0000 0.6275229612
C   C13       1.0  0.61404  0.77000  0.82097  1.0000 -0.0578277061
C   C14       1.0  0.88596  0.23000  0.32097  1.0000 -0.0578277061
C   C15       1.0  0.11404  0.73000  0.17903  1.0000 -0.0578277061
C   C16       1.0  0.38596  0.27000  0.67903  1.0000 -0.0578277061
C   C17       1.0  0.82097  0.61404  0.77000  1.0000 -0.0578277061
C   C18       1.0  0.77000  0.82097  0.61404  1.0000 -0.0578277061
C   C19       1.0  0.67903  0.38596  0.27000  1.0000 -0.0578277061
C   C20       1.0  0.23000  0.32097  0.88596  1.0000 -0.0578277061
C   C21       1.0  0.32097  0.88596  0.23000  1.0000 -0.0578277061
C   C22       1.0  0.73000  0.17903  0.11404  1.0000 -0.0578277061
C   C23       1.0  0.17903  0.11404  0.73000  1.0000 -0.0578277061
C   C24       1.0  0.27000  0.67903  0.38596  1.0000 -0.0578277061
C   C25       1.0  0.59384  0.78670  0.85992  1.0000 -0.0908692386
C   C26       1.0  0.90616  0.21330  0.35992  1.0000 -0.0908692386
C   C27       1.0  0.09384  0.71330  0.14008  1.0000 -0.0908692386
C   C28       1.0  0.40616  0.28670  0.64008  1.0000 -0.0908692386
C   C29       1.0  0.85992  0.59384  0.78670  1.0000 -0.0908692386
C   C30       1.0  0.78670  0.85992  0.59384  1.0000 -0.0908692386
C   C31       1.0  0.64008  0.40616  0.28670  1.0000 -0.0908692386
C   C32       1.0  0.21330  0.35992  0.90616  1.0000 -0.0908692386
C   C33       1.0  0.35992  0.90616  0.21330  1.0000 -0.0908692386
C   C34       1.0  0.71330  0.14008  0.09384  1.0000 -0.0908692386
C   C35       1.0  0.14008  0.09384  0.71330  1.0000 -0.0908692386
C   C36       1.0  0.28670  0.64008  0.40616  1.0000 -0.0908692386
C   C37       1.0  0.58643  0.75030  0.78887  1.0000 -0.0992602051
C   C38       1.0  0.91357  0.24970  0.28887  1.0000 -0.0992602051
C   C39       1.0  0.08643  0.74970  0.21113  1.0000 -0.0992602051
C   C40       1.0  0.41357  0.25030  0.71113  1.0000 -0.0992602051
C   C41       1.0  0.78887  0.58643  0.75030  1.0000 -0.0992602051
C   C42       1.0  0.75030  0.78887  0.58643  1.0000 -0.0992602051
C   C43       1.0  0.71113  0.41357  0.25030  1.0000 -0.0992602051
C   C44       1.0  0.24970  0.28887  0.91357  1.0000 -0.0992602051
C   C45       1.0  0.28887  0.91357  0.24970  1.0000 -0.0992602051
C   C46       1.0  0.74970  0.21113  0.08643  1.0000 -0.0992602051
C   C47       1.0  0.21113  0.08643  0.74970  1.0000 -0.0992602051
C   C48       1.0  0.25030  0.71113  0.41357  1.0000 -0.0992602051
C   C49       1.0  0.54791  0.78150  0.86689  1.0000 -0.1803450693
C   C50       1.0  0.95209  0.21850  0.36689  1.0000 -0.1803450693
C   C51       1.0  0.04791  0.71850  0.13311  1.0000 -0.1803450693
C   C52       1.0  0.45209  0.28150  0.63311  1.0000 -0.1803450693
C   C53       1.0  0.86689  0.54791  0.78150  1.0000 -0.1803450693
C   C54       1.0  0.78150  0.86689  0.54791  1.0000 -0.1803450693
C   C55       1.0  0.63311  0.45209  0.28150  1.0000 -0.1803450693
C   C56       1.0  0.21850  0.36689  0.95209  1.0000 -0.1803450693
C   C57       1.0  0.36689  0.95209  0.21850  1.0000 -0.1803450693
C   C58       1.0  0.71850  0.13311  0.04791  1.0000 -0.1803450693
C   C59       1.0  0.13311  0.04791  0.71850  1.0000 -0.1803450693
C   C60       1.0  0.28150  0.63311  0.45209  1.0000 -0.1803450693
C   C61       1.0  0.54092  0.74440  0.79478  1.0000 -0.1803450693
C   C62       1.0  0.95908  0.25560  0.29478  1.0000 -0.1803450693
C   C63       1.0  0.04092  0.75560  0.20522  1.0000 -0.1803450693
C   C64       1.0  0.45908  0.24440  0.70522  1.0000 -0.1803450693
C   C65       1.0  0.79478  0.54092  0.74440  1.0000 -0.1803450693
C   C66       1.0  0.74440  0.79478  0.54092  1.0000 -0.1803450693
C   C67       1.0  0.70522  0.45908  0.24440  1.0000 -0.1803450693
C   C68       1.0  0.25560  0.29478  0.95908  1.0000 -0.1803450693
C   C69       1.0  0.29478  0.95908  0.25560  1.0000 -0.1803450693
C   C70       1.0  0.75560  0.20522  0.04092  1.0000 -0.1803450693
C   C71       1.0  0.20522  0.04092  0.75560  1.0000 -0.1803450693
C   C72       1.0  0.24440  0.70522  0.45908  1.0000 -0.1803450693
C   C73       1.0  0.52047  0.76060  0.83543  1.0000 0.0781268766
C   C74       1.0  0.97953  0.23940  0.33543  1.0000 0.0781268766
C   C75       1.0  0.02047  0.73940  0.16457  1.0000 0.0781268766
C   C76       1.0  0.47953  0.26060  0.66457  1.0000 0.0781268766
C   C77       1.0  0.83543  0.52047  0.76060  1.0000 0.0781268766
C   C78       1.0  0.76060  0.83543  0.52047  1.0000 0.0781268766
C   C79       1.0  0.66457  0.47953  0.26060  1.0000 0.0781268766
C   C80       1.0  0.23940  0.33543  0.97953  1.0000 0.0781268766
C   C81       1.0  0.33543  0.97953  0.23940  1.0000 0.0781268766
C   C82       1.0  0.73940  0.16457  0.02047  1.0000 0.0781268766
C   C83       1.0  0.16457  0.02047  0.73940  1.0000 0.0781268766
C   C84       1.0  0.26060  0.66457  0.47953  1.0000 0.0781268766
C   C85       1.0  0.43917  0.75870  0.80893  1.0000 0.009046272
C   C86       1.0  0.06083  0.24130  0.30893  1.0000 0.009046272
C   C87       1.0  0.93917  0.74130  0.19107  1.0000 0.009046272
C   C88       1.0  0.56083  0.25870  0.69107  1.0000 0.009046272
C   C89       1.0  0.80893  0.43917  0.75870  1.0000 0.009046272
C   C90       1.0  0.75870  0.80893  0.43917  1.0000 0.009046272
C   C91       1.0  0.69107  0.56083  0.25870  1.0000 0.009046272
C   C92       1.0  0.24130  0.30893  0.06083  1.0000 0.009046272
C   C93       1.0  0.30893  0.06083  0.24130  1.0000 0.009046272
C   C94       1.0  0.74130  0.19107  0.93917  1.0000 0.009046272
C   C95       1.0  0.19107  0.93917  0.74130  1.0000 0.009046272
C   C96       1.0  0.25870  0.69107  0.56083  1.0000 0.009046272
C   C97       1.0  0.47113  0.75519  0.84348  1.0000 0.0207286201
C   C98       1.0  0.02887  0.24481  0.34348  1.0000 0.0207286201
C   C99       1.0  0.97113  0.74481  0.15652  1.0000 0.0207286201
C   C100      1.0  0.52887  0.25519  0.65652  1.0000 0.0207286201
C   C101      1.0  0.84348  0.47113  0.75519  1.0000 0.0207286201
C   C102      1.0  0.75519  0.84348  0.47113  1.0000 0.0207286201
C   C103      1.0  0.65652  0.52887  0.25519  1.0000 0.0207286201
C   C104      1.0  0.24481  0.34348  0.02887  1.0000 0.0207286201
C   C105      1.0  0.34348  0.02887  0.24481  1.0000 0.0207286201
C   C106      1.0  0.74481  0.15652  0.97113  1.0000 0.0207286201
C   C107      1.0  0.15652  0.97113  0.74481  1.0000 0.0207286201
C   C108      1.0  0.25519  0.65652  0.52887  1.0000 0.0207286201
C   C109      1.0  0.45488  0.74755  0.88616  1.0000 -0.1605894401
C   C110      1.0  0.04512  0.25245  0.38616  1.0000 -0.1605894401
C   C111      1.0  0.95488  0.75245  0.11384  1.0000 -0.1605894401
C   C112      1.0  0.54512  0.24755  0.61384  1.0000 -0.1605894401
C   C113      1.0  0.88616  0.45488  0.74755  1.0000 -0.1605894401
C   C114      1.0  0.74755  0.88616  0.45488  1.0000 -0.1605894401
C   C115      1.0  0.61384  0.54512  0.24755  1.0000 -0.1605894401
C   C116      1.0  0.25245  0.38616  0.04512  1.0000 -0.1605894401
C   C117      1.0  0.38616  0.04512  0.25245  1.0000 -0.1605894401
C   C118      1.0  0.75245  0.11384  0.95488  1.0000 -0.1605894401
C   C119      1.0  0.11384  0.95488  0.75245  1.0000 -0.1605894401
C   C120      1.0  0.24755  0.61384  0.54512  1.0000 -0.1605894401
C   C121      1.0  0.40810  0.74413  0.89411  1.0000 0.0207286201
C   C122      1.0  0.09190  0.25587  0.39411  1.0000 0.0207286201
C   C123      1.0  0.90810  0.75587  0.10589  1.0000 0.0207286201
C   C124      1.0  0.59190  0.24413  0.60589  1.0000 0.0207286201
C   C125      1.0  0.89411  0.40810  0.74413  1.0000 0.0207286201
C   C126      1.0  0.74413  0.89411  0.40810  1.0000 0.0207286201
C   C127      1.0  0.60589  0.59190  0.24413  1.0000 0.0207286201
C   C128      1.0  0.25587  0.39411  0.09190  1.0000 0.0207286201
C   C129      1.0  0.39411  0.09190  0.25587  1.0000 0.0207286201
C   C130      1.0  0.75587  0.10589  0.90810  1.0000 0.0207286201
C   C131      1.0  0.10589  0.90810  0.75587  1.0000 0.0207286201
C   C132      1.0  0.24413  0.60589  0.59190  1.0000 0.0207286201
C   C133      1.0  0.38040  0.74950  0.85724  1.0000 -0.0037340555
C   C134      1.0  0.11960  0.25050  0.35724  1.0000 -0.0037340555
C   C135      1.0  0.88040  0.75050  0.14276  1.0000 -0.0037340555
C   C136      1.0  0.61960  0.24950  0.64276  1.0000 -0.0037340555
C   C137      1.0  0.85724  0.38040  0.74950  1.0000 -0.0037340555
C   C138      1.0  0.74950  0.85724  0.38040  1.0000 -0.0037340555
C   C139      1.0  0.64276  0.61960  0.24950  1.0000 -0.0037340555
C   C140      1.0  0.25050  0.35724  0.11960  1.0000 -0.0037340555
C   C141      1.0  0.35724  0.11960  0.25050  1.0000 -0.0037340555
C   C142      1.0  0.75050  0.14276  0.88040  1.0000 -0.0037340555
C   C143      1.0  0.14276  0.88040  0.75050  1.0000 -0.0037340555
C   C144      1.0  0.24950  0.64276  0.61960  1.0000 -0.0037340555
C   C145      1.0  0.38992  0.73920  0.94022  1.0000 0.0781268766
C   C146      1.0  0.11008  0.26080  0.44022  1.0000 0.0781268766
C   C147      1.0  0.88992  0.76080  0.05978  1.0000 0.0781268766
C   C148      1.0  0.61008  0.23920  0.55978  1.0000 0.0781268766
C   C149      1.0  0.94022  0.38992  0.73920  1.0000 0.0781268766
C   C150      1.0  0.73920  0.94022  0.38992  1.0000 0.0781268766
C   C151      1.0  0.55978  0.61008  0.23920  1.0000 0.0781268766
C   C152      1.0  0.26080  0.44022  0.11008  1.0000 0.0781268766
C   C153      1.0  0.44022  0.11008  0.26080  1.0000 0.0781268766
C   C154      1.0  0.76080  0.05978  0.88992  1.0000 0.0781268766
C   C155      1.0  0.05978  0.88992  0.76080  1.0000 0.0781268766
C   C156      1.0  0.23920  0.55978  0.61008  1.0000 0.0781268766
C   C157      1.0  0.41193  0.75650  0.97749  1.0000 -0.1656044451
C   C158      1.0  0.08807  0.24350  0.47749  1.0000 -0.1656044451
C   C159      1.0  0.91193  0.74350  0.02251  1.0000 -0.1656044451
C   C160      1.0  0.58807  0.25650  0.52251  1.0000 -0.1656044451
C   C161      1.0  0.97749  0.41193  0.75650  1.0000 -0.1656044451
C   C162      1.0  0.75650  0.97749  0.41193  1.0000 -0.1656044451
C   C163      1.0  0.52251  0.58807  0.25650  1.0000 -0.1656044451
C   C164      1.0  0.24350  0.47749  0.08807  1.0000 -0.1656044451
C   C165      1.0  0.47749  0.08807  0.24350  1.0000 -0.1656044451
C   C166      1.0  0.74350  0.02251  0.91193  1.0000 -0.1656044451
C   C167      1.0  0.02251  0.91193  0.74350  1.0000 -0.1656044451
C   C168      1.0  0.25650  0.52251  0.58807  1.0000 -0.1656044451
C   C169      1.0  0.34948  0.71690  0.94816  1.0000 -0.1605894401
C   C170      1.0  0.15052  0.28310  0.44816  1.0000 -0.1605894401
C   C171      1.0  0.84948  0.78310  0.05184  1.0000 -0.1605894401
C   C172      1.0  0.65052  0.21690  0.55184  1.0000 -0.1605894401
C   C173      1.0  0.94816  0.34948  0.71690  1.0000 -0.1605894401
C   C174      1.0  0.71690  0.94816  0.34948  1.0000 -0.1605894401
C   C175      1.0  0.55184  0.65052  0.21690  1.0000 -0.1605894401
C   C176      1.0  0.28310  0.44816  0.15052  1.0000 -0.1605894401
C   C177      1.0  0.44816  0.15052  0.28310  1.0000 -0.1605894401
C   C178      1.0  0.78310  0.05184  0.84948  1.0000 -0.1605894401
C   C179      1.0  0.05184  0.84948  0.78310  1.0000 -0.1605894401
C   C180      1.0  0.21690  0.55184  0.65052  1.0000 -0.1605894401
C   C181      1.0  0.39538  0.75020  0.02040  1.0000 -0.0992602051
C   C182      1.0  0.10462  0.24980  0.52040  1.0000 -0.0992602051
C   C183      1.0  0.89538  0.74980  0.97960  1.0000 -0.0992602051
C   C184      1.0  0.60462  0.25020  0.47960  1.0000 -0.0992602051
C   C185      1.0  0.02040  0.39538  0.75020  1.0000 -0.0992602051
C   C186      1.0  0.75020  0.02040  0.39538  1.0000 -0.0992602051
C   C187      1.0  0.47960  0.60462  0.25020  1.0000 -0.0992602051
C   C188      1.0  0.24980  0.52040  0.10462  1.0000 -0.0992602051
C   C189      1.0  0.52040  0.10462  0.24980  1.0000 -0.0992602051
C   C190      1.0  0.74980  0.97960  0.89538  1.0000 -0.0992602051
C   C191      1.0  0.97960  0.89538  0.74980  1.0000 -0.0992602051
C   C192      1.0  0.25020  0.47960  0.60462  1.0000 -0.0992602051
C   C193      1.0  0.33243  0.71090  0.99077  1.0000 -0.0992602051
C   C194      1.0  0.16757  0.28910  0.49077  1.0000 -0.0992602051
C   C195      1.0  0.83243  0.78910  0.00923  1.0000 -0.0992602051
C   C196      1.0  0.66757  0.21090  0.50923  1.0000 -0.0992602051
C   C197      1.0  0.99077  0.33243  0.71090  1.0000 -0.0992602051
C   C198      1.0  0.71090  0.99077  0.33243  1.0000 -0.0992602051
C   C199      1.0  0.50923  0.66757  0.21090  1.0000 -0.0992602051
C   C200      1.0  0.28910  0.49077  0.16757  1.0000 -0.0992602051
C   C201      1.0  0.49077  0.16757  0.28910  1.0000 -0.0992602051
C   C202      1.0  0.78910  0.00923  0.83243  1.0000 -0.0992602051
C   C203      1.0  0.00923  0.83243  0.78910  1.0000 -0.0992602051
C   C204      1.0  0.21090  0.50923  0.66757  1.0000 -0.0992602051
C   C205      1.0  0.35491  0.72750  0.02744  1.0000 -0.0405737885
C   C206      1.0  0.14509  0.27250  0.52744  1.0000 -0.0405737885
C   C207      1.0  0.85491  0.77250  0.97256  1.0000 -0.0405737885
C   C208      1.0  0.64509  0.22750  0.47256  1.0000 -0.0405737885
C   C209      1.0  0.02744  0.35491  0.72750  1.0000 -0.0405737885
C   C210      1.0  0.72750  0.02744  0.35491  1.0000 -0.0405737885
C   C211      1.0  0.47256  0.64509  0.22750  1.0000 -0.0405737885
C   C212      1.0  0.27250  0.52744  0.14509  1.0000 -0.0405737885
C   C213      1.0  0.52744  0.14509  0.27250  1.0000 -0.0405737885
C   C214      1.0  0.77250  0.97256  0.85491  1.0000 -0.0405737885
C   C215      1.0  0.97256  0.85491  0.77250  1.0000 -0.0405737885
C   C216      1.0  0.22750  0.47256  0.64509  1.0000 -0.0405737885
C   C217      1.0  0.33718  0.72293  0.07523  1.0000 0.6228617688
C   C218      1.0  0.16282  0.27707  0.57523  1.0000 0.6228617688
C   C219      1.0  0.83718  0.77707  0.92477  1.0000 0.6228617688
C   C220      1.0  0.66282  0.22293  0.42477  1.0000 0.6228617688
C   C221      1.0  0.07523  0.33718  0.72293  1.0000 0.6228617688
C   C222      1.0  0.72293  0.07523  0.33718  1.0000 0.6228617688
C   C223      1.0  0.42477  0.66282  0.22293  1.0000 0.6228617688
C   C224      1.0  0.27707  0.57523  0.16282  1.0000 0.6228617688
C   C225      1.0  0.57523  0.16282  0.27707  1.0000 0.6228617688
C   C226      1.0  0.77707  0.92477  0.83718  1.0000 0.6228617688
C   C227      1.0  0.92477  0.83718  0.77707  1.0000 0.6228617688
C   C228      1.0  0.22293  0.42477  0.66282  1.0000 0.6228617688
C   C229      1.0  0.33628  0.22670  0.18531  1.0000 0.6275229612
C   C230      1.0  0.16372  0.77330  0.68531  1.0000 0.6275229612
C   C231      1.0  0.83628  0.27330  0.81469  1.0000 0.6275229612
C   C232      1.0  0.66372  0.72670  0.31469  1.0000 0.6275229612
C   C233      1.0  0.18531  0.33628  0.22670  1.0000 0.6275229612
C   C234      1.0  0.22670  0.18531  0.33628  1.0000 0.6275229612
C   C235      1.0  0.31469  0.66372  0.72670  1.0000 0.6275229612
C   C236      1.0  0.77330  0.68531  0.16372  1.0000 0.6275229612
C   C237      1.0  0.68531  0.16372  0.77330  1.0000 0.6275229612
C   C238      1.0  0.27330  0.81469  0.83628  1.0000 0.6275229612
C   C239      1.0  0.81469  0.83628  0.27330  1.0000 0.6275229612
C   C240      1.0  0.72670  0.31469  0.66372  1.0000 0.6275229612
C   C241      1.0  0.38596  0.23000  0.17903  1.0000 -0.0578277061
C   C242      1.0  0.11404  0.77000  0.67903  1.0000 -0.0578277061
C   C243      1.0  0.88596  0.27000  0.82097  1.0000 -0.0578277061
C   C244      1.0  0.61404  0.73000  0.32097  1.0000 -0.0578277061
C   C245      1.0  0.17903  0.38596  0.23000  1.0000 -0.0578277061
C   C246      1.0  0.23000  0.17903  0.38596  1.0000 -0.0578277061
C   C247      1.0  0.32097  0.61404  0.73000  1.0000 -0.0578277061
C   C248      1.0  0.77000  0.67903  0.11404  1.0000 -0.0578277061
C   C249      1.0  0.67903  0.11404  0.77000  1.0000 -0.0578277061
C   C250      1.0  0.27000  0.82097  0.88596  1.0000 -0.0578277061
C   C251      1.0  0.82097  0.88596  0.27000  1.0000 -0.0578277061
C   C252      1.0  0.73000  0.32097  0.61404  1.0000 -0.0578277061
C   C253      1.0  0.40616  0.21330  0.14008  1.0000 -0.0908692386
C   C254      1.0  0.09384  0.78670  0.64008  1.0000 -0.0908692386
C   C255      1.0  0.90616  0.28670  0.85992  1.0000 -0.0908692386
C   C256      1.0  0.59384  0.71330  0.35992  1.0000 -0.0908692386
C   C257      1.0  0.14008  0.40616  0.21330  1.0000 -0.0908692386
C   C258      1.0  0.21330  0.14008  0.40616  1.0000 -0.0908692386
C   C259      1.0  0.35992  0.59384  0.71330  1.0000 -0.0908692386
C   C260      1.0  0.78670  0.64008  0.09384  1.0000 -0.0908692386
C   C261      1.0  0.64008  0.09384  0.78670  1.0000 -0.0908692386
C   C262      1.0  0.28670  0.85992  0.90616  1.0000 -0.0908692386
C   C263      1.0  0.85992  0.90616  0.28670  1.0000 -0.0908692386
C   C264      1.0  0.71330  0.35992  0.59384  1.0000 -0.0908692386
C   C265      1.0  0.41357  0.24970  0.21113  1.0000 -0.0992602051
C   C266      1.0  0.08643  0.75030  0.71113  1.0000 -0.0992602051
C   C267      1.0  0.91357  0.25030  0.78887  1.0000 -0.0992602051
C   C268      1.0  0.58643  0.74970  0.28887  1.0000 -0.0992602051
C   C269      1.0  0.21113  0.41357  0.24970  1.0000 -0.0992602051
C   C270      1.0  0.24970  0.21113  0.41357  1.0000 -0.0992602051
C   C271      1.0  0.28887  0.58643  0.74970  1.0000 -0.0992602051
C   C272      1.0  0.75030  0.71113  0.08643  1.0000 -0.0992602051
C   C273      1.0  0.71113  0.08643  0.75030  1.0000 -0.0992602051
C   C274      1.0  0.25030  0.78887  0.91357  1.0000 -0.0992602051
C   C275      1.0  0.78887  0.91357  0.25030  1.0000 -0.0992602051
C   C276      1.0  0.74970  0.28887  0.58643  1.0000 -0.0992602051
C   C277      1.0  0.45209  0.21850  0.13311  1.0000 -0.1803450693
C   C278      1.0  0.04791  0.78150  0.63311  1.0000 -0.1803450693
C   C279      1.0  0.95209  0.28150  0.86689  1.0000 -0.1803450693
C   C280      1.0  0.54791  0.71850  0.36689  1.0000 -0.1803450693
C   C281      1.0  0.13311  0.45209  0.21850  1.0000 -0.1803450693
C   C282      1.0  0.21850  0.13311  0.45209  1.0000 -0.1803450693
C   C283      1.0  0.36689  0.54791  0.71850  1.0000 -0.1803450693
C   C284      1.0  0.78150  0.63311  0.04791  1.0000 -0.1803450693
C   C285      1.0  0.63311  0.04791  0.78150  1.0000 -0.1803450693
C   C286      1.0  0.28150  0.86689  0.95209  1.0000 -0.1803450693
C   C287      1.0  0.86689  0.95209  0.28150  1.0000 -0.1803450693
C   C288      1.0  0.71850  0.36689  0.54791  1.0000 -0.1803450693
C   C289      1.0  0.45908  0.25560  0.20522  1.0000 -0.1803450693
C   C290      1.0  0.04092  0.74440  0.70522  1.0000 -0.1803450693
C   C291      1.0  0.95908  0.24440  0.79478  1.0000 -0.1803450693
C   C292      1.0  0.54092  0.75560  0.29478  1.0000 -0.1803450693
C   C293      1.0  0.20522  0.45908  0.25560  1.0000 -0.1803450693
C   C294      1.0  0.25560  0.20522  0.45908  1.0000 -0.1803450693
C   C295      1.0  0.29478  0.54092  0.75560  1.0000 -0.1803450693
C   C296      1.0  0.74440  0.70522  0.04092  1.0000 -0.1803450693
C   C297      1.0  0.70522  0.04092  0.74440  1.0000 -0.1803450693
C   C298      1.0  0.24440  0.79478  0.95908  1.0000 -0.1803450693
C   C299      1.0  0.79478  0.95908  0.24440  1.0000 -0.1803450693
C   C300      1.0  0.75560  0.29478  0.54092  1.0000 -0.1803450693
C   C301      1.0  0.47953  0.23940  0.16457  1.0000 0.0781268766
C   C302      1.0  0.02047  0.76060  0.66457  1.0000 0.0781268766
C   C303      1.0  0.97953  0.26060  0.83543  1.0000 0.0781268766
C   C304      1.0  0.52047  0.73940  0.33543  1.0000 0.0781268766
C   C305      1.0  0.16457  0.47953  0.23940  1.0000 0.0781268766
C   C306      1.0  0.23940  0.16457  0.47953  1.0000 0.0781268766
C   C307      1.0  0.33543  0.52047  0.73940  1.0000 0.0781268766
C   C308      1.0  0.76060  0.66457  0.02047  1.0000 0.0781268766
C   C309      1.0  0.66457  0.02047  0.76060  1.0000 0.0781268766
C   C310      1.0  0.26060  0.83543  0.97953  1.0000 0.0781268766
C   C311      1.0  0.83543  0.97953  0.26060  1.0000 0.0781268766
C   C312      1.0  0.73940  0.33543  0.52047  1.0000 0.0781268766
C   C313      1.0  0.56083  0.24130  0.19107  1.0000 0.009046272
C   C314      1.0  0.93917  0.75870  0.69107  1.0000 0.009046272
C   C315      1.0  0.06083  0.25870  0.80893  1.0000 0.009046272
C   C316      1.0  0.43917  0.74130  0.30893  1.0000 0.009046272
C   C317      1.0  0.19107  0.56083  0.24130  1.0000 0.009046272
C   C318      1.0  0.24130  0.19107  0.56083  1.0000 0.009046272
C   C319      1.0  0.30893  0.43917  0.74130  1.0000 0.009046272
C   C320      1.0  0.75870  0.69107  0.93917  1.0000 0.009046272
C   C321      1.0  0.69107  0.93917  0.75870  1.0000 0.009046272
C   C322      1.0  0.25870  0.80893  0.06083  1.0000 0.009046272
C   C323      1.0  0.80893  0.06083  0.25870  1.0000 0.009046272
C   C324      1.0  0.74130  0.30893  0.43917  1.0000 0.009046272
C   C325      1.0  0.52887  0.24481  0.15652  1.0000 0.0207286201
C   C326      1.0  0.97113  0.75519  0.65652  1.0000 0.0207286201
C   C327      1.0  0.02887  0.25519  0.84348  1.0000 0.0207286201
C   C328      1.0  0.47113  0.74481  0.34348  1.0000 0.0207286201
C   C329      1.0  0.15652  0.52887  0.24481  1.0000 0.0207286201
C   C330      1.0  0.24481  0.15652  0.52887  1.0000 0.0207286201
C   C331      1.0  0.34348  0.47113  0.74481  1.0000 0.0207286201
C   C332      1.0  0.75519  0.65652  0.97113  1.0000 0.0207286201
C   C333      1.0  0.65652  0.97113  0.75519  1.0000 0.0207286201
C   C334      1.0  0.25519  0.84348  0.02887  1.0000 0.0207286201
C   C335      1.0  0.84348  0.02887  0.25519  1.0000 0.0207286201
C   C336      1.0  0.74481  0.34348  0.47113  1.0000 0.0207286201
C   C337      1.0  0.54512  0.25245  0.11384  1.0000 -0.1605894401
C   C338      1.0  0.95488  0.74755  0.61384  1.0000 -0.1605894401
C   C339      1.0  0.04512  0.24755  0.88616  1.0000 -0.1605894401
C   C340      1.0  0.45488  0.75245  0.38616  1.0000 -0.1605894401
C   C341      1.0  0.11384  0.54512  0.25245  1.0000 -0.1605894401
C   C342      1.0  0.25245  0.11384  0.54512  1.0000 -0.1605894401
C   C343      1.0  0.38616  0.45488  0.75245  1.0000 -0.1605894401
C   C344      1.0  0.74755  0.61384  0.95488  1.0000 -0.1605894401
C   C345      1.0  0.61384  0.95488  0.74755  1.0000 -0.1605894401
C   C346      1.0  0.24755  0.88616  0.04512  1.0000 -0.1605894401
C   C347      1.0  0.88616  0.04512  0.24755  1.0000 -0.1605894401
C   C348      1.0  0.75245  0.38616  0.45488  1.0000 -0.1605894401
C   C349      1.0  0.59190  0.25587  0.10589  1.0000 0.0207286201
C   C350      1.0  0.90810  0.74413  0.60589  1.0000 0.0207286201
C   C351      1.0  0.09190  0.24413  0.89411  1.0000 0.0207286201
C   C352      1.0  0.40810  0.75587  0.39411  1.0000 0.0207286201
C   C353      1.0  0.10589  0.59190  0.25587  1.0000 0.0207286201
C   C354      1.0  0.25587  0.10589  0.59190  1.0000 0.0207286201
C   C355      1.0  0.39411  0.40810  0.75587  1.0000 0.0207286201
C   C356      1.0  0.74413  0.60589  0.90810  1.0000 0.0207286201
C   C357      1.0  0.60589  0.90810  0.74413  1.0000 0.0207286201
C   C358      1.0  0.24413  0.89411  0.09190  1.0000 0.0207286201
C   C359      1.0  0.89411  0.09190  0.24413  1.0000 0.0207286201
C   C360      1.0  0.75587  0.39411  0.40810  1.0000 0.0207286201
C   C361      1.0  0.61960  0.25050  0.14276  1.0000 -0.0037340555
C   C362      1.0  0.88040  0.74950  0.64276  1.0000 -0.0037340555
C   C363      1.0  0.11960  0.24950  0.85724  1.0000 -0.0037340555
C   C364      1.0  0.38040  0.75050  0.35724  1.0000 -0.0037340555
C   C365      1.0  0.14276  0.61960  0.25050  1.0000 -0.0037340555
C   C366      1.0  0.25050  0.14276  0.61960  1.0000 -0.0037340555
C   C367      1.0  0.35724  0.38040  0.75050  1.0000 -0.0037340555
C   C368      1.0  0.74950  0.64276  0.88040  1.0000 -0.0037340555
C   C369      1.0  0.64276  0.88040  0.74950  1.0000 -0.0037340555
C   C370      1.0  0.24950  0.85724  0.11960  1.0000 -0.0037340555
C   C371      1.0  0.85724  0.11960  0.24950  1.0000 -0.0037340555
C   C372      1.0  0.75050  0.35724  0.38040  1.0000 -0.0037340555
C   C373      1.0  0.61008  0.26080  0.05978  1.0000 0.0781268766
C   C374      1.0  0.88992  0.73920  0.55978  1.0000 0.0781268766
C   C375      1.0  0.11008  0.23920  0.94022  1.0000 0.0781268766
C   C376      1.0  0.38992  0.76080  0.44022  1.0000 0.0781268766
C   C377      1.0  0.05978  0.61008  0.26080  1.0000 0.0781268766
C   C378      1.0  0.26080  0.05978  0.61008  1.0000 0.0781268766
C   C379      1.0  0.44022  0.38992  0.76080  1.0000 0.0781268766
C   C380      1.0  0.73920  0.55978  0.88992  1.0000 0.0781268766
C   C381      1.0  0.55978  0.88992  0.73920  1.0000 0.0781268766
C   C382      1.0  0.23920  0.94022  0.11008  1.0000 0.0781268766
C   C383      1.0  0.94022  0.11008  0.23920  1.0000 0.0781268766
C   C384      1.0  0.76080  0.44022  0.38992  1.0000 0.0781268766
C   C385      1.0  0.58807  0.24350  0.02251  1.0000 -0.1656044451
C   C386      1.0  0.91193  0.75650  0.52251  1.0000 -0.1656044451
C   C387      1.0  0.08807  0.25650  0.97749  1.0000 -0.1656044451
C   C388      1.0  0.41193  0.74350  0.47749  1.0000 -0.1656044451
C   C389      1.0  0.02251  0.58807  0.24350  1.0000 -0.1656044451
C   C390      1.0  0.24350  0.02251  0.58807  1.0000 -0.1656044451
C   C391      1.0  0.47749  0.41193  0.74350  1.0000 -0.1656044451
C   C392      1.0  0.75650  0.52251  0.91193  1.0000 -0.1656044451
C   C393      1.0  0.52251  0.91193  0.75650  1.0000 -0.1656044451
C   C394      1.0  0.25650  0.97749  0.08807  1.0000 -0.1656044451
C   C395      1.0  0.97749  0.08807  0.25650  1.0000 -0.1656044451
C   C396      1.0  0.74350  0.47749  0.41193  1.0000 -0.1656044451
C   C397      1.0  0.65052  0.28310  0.05184  1.0000 -0.1605894401
C   C398      1.0  0.84948  0.71690  0.55184  1.0000 -0.1605894401
C   C399      1.0  0.15052  0.21690  0.94816  1.0000 -0.1605894401
C   C400      1.0  0.34948  0.78310  0.44816  1.0000 -0.1605894401
C   C401      1.0  0.05184  0.65052  0.28310  1.0000 -0.1605894401
C   C402      1.0  0.28310  0.05184  0.65052  1.0000 -0.1605894401
C   C403      1.0  0.44816  0.34948  0.78310  1.0000 -0.1605894401
C   C404      1.0  0.71690  0.55184  0.84948  1.0000 -0.1605894401
C   C405      1.0  0.55184  0.84948  0.71690  1.0000 -0.1605894401
C   C406      1.0  0.21690  0.94816  0.15052  1.0000 -0.1605894401
C   C407      1.0  0.94816  0.15052  0.21690  1.0000 -0.1605894401
C   C408      1.0  0.78310  0.44816  0.34948  1.0000 -0.1605894401
C   C409      1.0  0.60462  0.24980  0.97960  1.0000 -0.0992602051
C   C410      1.0  0.89538  0.75020  0.47960  1.0000 -0.0992602051
C   C411      1.0  0.10462  0.25020  0.02040  1.0000 -0.0992602051
C   C412      1.0  0.39538  0.74980  0.52040  1.0000 -0.0992602051
C   C413      1.0  0.97960  0.60462  0.24980  1.0000 -0.0992602051
C   C414      1.0  0.24980  0.97960  0.60462  1.0000 -0.0992602051
C   C415      1.0  0.52040  0.39538  0.74980  1.0000 -0.0992602051
C   C416      1.0  0.75020  0.47960  0.89538  1.0000 -0.0992602051
C   C417      1.0  0.47960  0.89538  0.75020  1.0000 -0.0992602051
C   C418      1.0  0.25020  0.02040  0.10462  1.0000 -0.0992602051
C   C419      1.0  0.02040  0.10462  0.25020  1.0000 -0.0992602051
C   C420      1.0  0.74980  0.52040  0.39538  1.0000 -0.0992602051
C   C421      1.0  0.66757  0.28910  0.00923  1.0000 -0.0992602051
C   C422      1.0  0.83243  0.71090  0.50923  1.0000 -0.0992602051
C   C423      1.0  0.16757  0.21090  0.99077  1.0000 -0.0992602051
C   C424      1.0  0.33243  0.78910  0.49077  1.0000 -0.0992602051
C   C425      1.0  0.00923  0.66757  0.28910  1.0000 -0.0992602051
C   C426      1.0  0.28910  0.00923  0.66757  1.0000 -0.0992602051
C   C427      1.0  0.49077  0.33243  0.78910  1.0000 -0.0992602051
C   C428      1.0  0.71090  0.50923  0.83243  1.0000 -0.0992602051
C   C429      1.0  0.50923  0.83243  0.71090  1.0000 -0.0992602051
C   C430      1.0  0.21090  0.99077  0.16757  1.0000 -0.0992602051
C   C431      1.0  0.99077  0.16757  0.21090  1.0000 -0.0992602051
C   C432      1.0  0.78910  0.49077  0.33243  1.0000 -0.0992602051
C   C433      1.0  0.64509  0.27250  0.97256  1.0000 -0.0405737885
C   C434      1.0  0.85491  0.72750  0.47256  1.0000 -0.0405737885
C   C435      1.0  0.14509  0.22750  0.02744  1.0000 -0.0405737885
C   C436      1.0  0.35491  0.77250  0.52744  1.0000 -0.0405737885
C   C437      1.0  0.97256  0.64509  0.27250  1.0000 -0.0405737885
C   C438      1.0  0.27250  0.97256  0.64509  1.0000 -0.0405737885
C   C439      1.0  0.52744  0.35491  0.77250  1.0000 -0.0405737885
C   C440      1.0  0.72750  0.47256  0.85491  1.0000 -0.0405737885
C   C441      1.0  0.47256  0.85491  0.72750  1.0000 -0.0405737885
C   C442      1.0  0.22750  0.02744  0.14509  1.0000 -0.0405737885
C   C443      1.0  0.02744  0.14509  0.22750  1.0000 -0.0405737885
C   C444      1.0  0.77250  0.52744  0.35491  1.0000 -0.0405737885
C   C445      1.0  0.66282  0.27707  0.92477  1.0000 0.6228617688
C   C446      1.0  0.83718  0.72293  0.42477  1.0000 0.6228617688
C   C447      1.0  0.16282  0.22293  0.07523  1.0000 0.6228617688
C   C448      1.0  0.33718  0.77707  0.57523  1.0000 0.6228617688
C   C449      1.0  0.92477  0.66282  0.27707  1.0000 0.6228617688
C   C450      1.0  0.27707  0.92477  0.66282  1.0000 0.6228617688
C   C451      1.0  0.57523  0.33718  0.77707  1.0000 0.6228617688
C   C452      1.0  0.72293  0.42477  0.83718  1.0000 0.6228617688
C   C453      1.0  0.42477  0.83718  0.72293  1.0000 0.6228617688
C   C454      1.0  0.22293  0.07523  0.16282  1.0000 0.6228617688
C   C455      1.0  0.07523  0.16282  0.22293  1.0000 0.6228617688
C   C456      1.0  0.77707  0.57523  0.33718  1.0000 0.6228617688
N   N1        1.0  0.39499  0.75597  0.81475  1.0000 -0.2088546681
N   N2        1.0  0.10501  0.24403  0.31475  1.0000 -0.2088546681
N   N3        1.0  0.89499  0.74403  0.18525  1.0000 -0.2088546681
N   N4        1.0  0.60501  0.25597  0.68525  1.0000 -0.2088546681
N   N5        1.0  0.81475  0.39499  0.75597  1.0000 -0.2088546681
N   N6        1.0  0.75597  0.81475  0.39499  1.0000 -0.2088546681
N   N7        1.0  0.68525  0.60501  0.25597  1.0000 -0.2088546681
N   N8        1.0  0.24403  0.31475  0.10501  1.0000 -0.2088546681
N   N9        1.0  0.31475  0.10501  0.24403  1.0000 -0.2088546681
N   N10       1.0  0.74403  0.18525  0.89499  1.0000 -0.2088546681
N   N11       1.0  0.18525  0.89499  0.74403  1.0000 -0.2088546681
N   N12       1.0  0.25597  0.68525  0.60501  1.0000 -0.2088546681
N   N13       1.0  0.60501  0.24403  0.18525  1.0000 -0.2088546681
N   N14       1.0  0.89499  0.75597  0.68525  1.0000 -0.2088546681
N   N15       1.0  0.10501  0.25597  0.81475  1.0000 -0.2088546681
N   N16       1.0  0.39499  0.74403  0.31475  1.0000 -0.2088546681
N   N17       1.0  0.18525  0.60501  0.24403  1.0000 -0.2088546681
N   N18       1.0  0.24403  0.18525  0.60501  1.0000 -0.2088546681
N   N19       1.0  0.31475  0.39499  0.74403  1.0000 -0.2088546681
N   N20       1.0  0.75597  0.68525  0.89499  1.0000 -0.2088546681
N   N21       1.0  0.68525  0.89499  0.75597  1.0000 -0.2088546681
N   N22       1.0  0.25597  0.81475  0.10501  1.0000 -0.2088546681
N   N23       1.0  0.81475  0.10501  0.25597  1.0000 -0.2088546681
N   N24       1.0  0.74403  0.31475  0.39499  1.0000 -0.2088546681
O   O1        1.0  0.68444  0.79818  0.84348  1.0000 -0.7084507626
O   O2        1.0  0.81556  0.20182  0.34348  1.0000 -0.7084507626
O   O3        1.0  0.18444  0.70182  0.15652  1.0000 -0.7084507626
O   O4        1.0  0.31556  0.29818  0.65652  1.0000 -0.7084507626
O   O5        1.0  0.84348  0.68444  0.79818  1.0000 -0.7084507626
O   O6        1.0  0.79818  0.84348  0.68444  1.0000 -0.7084507626
O   O7        1.0  0.65652  0.31556  0.29818  1.0000 -0.7084507626
O   O8        1.0  0.20182  0.34348  0.81556  1.0000 -0.7084507626
O   O9        1.0  0.34348  0.81556  0.20182  1.0000 -0.7084507626
O   O10       1.0  0.70182  0.15652  0.18444  1.0000 -0.7084507626
O   O11       1.0  0.15652  0.18444  0.70182  1.0000 -0.7084507626
O   O12       1.0  0.29818  0.65652  0.31556  1.0000 -0.7084507626
O   O13       1.0  0.68213  0.75254  0.78189  1.0000 -0.7084507626
O   O14       1.0  0.81787  0.24746  0.28189  1.0000 -0.7084507626
O   O15       1.0  0.18213  0.74746  0.21811  1.0000 -0.7084507626
O   O16       1.0  0.31787  0.25254  0.71811  1.0000 -0.7084507626
O   O17       1.0  0.78189  0.68213  0.75254  1.0000 -0.7084507626
O   O18       1.0  0.75254  0.78189  0.68213  1.0000 -0.7084507626
O   O19       1.0  0.71811  0.31787  0.25254  1.0000 -0.7084507626
O   O20       1.0  0.24746  0.28189  0.81787  1.0000 -0.7084507626
O   O21       1.0  0.28189  0.81787  0.24746  1.0000 -0.7084507626
O   O22       1.0  0.74746  0.21811  0.18213  1.0000 -0.7084507626
O   O23       1.0  0.21811  0.18213  0.74746  1.0000 -0.7084507626
O   O24       1.0  0.25254  0.71811  0.31787  1.0000 -0.7084507626
O   O25       1.0  0.35900  0.74131  0.10580  1.0000 -0.6840083664
O   O26       1.0  0.14100  0.25869  0.60580  1.0000 -0.6840083664
O   O27       1.0  0.85900  0.75869  0.89420  1.0000 -0.6840083664
O   O28       1.0  0.64100  0.24131  0.39420  1.0000 -0.6840083664
O   O29       1.0  0.10580  0.35900  0.74131  1.0000 -0.6840083664
O   O30       1.0  0.74131  0.10580  0.35900  1.0000 -0.6840083664
O   O31       1.0  0.39420  0.64100  0.24131  1.0000 -0.6840083664
O   O32       1.0  0.25869  0.60580  0.14100  1.0000 -0.6840083664
O   O33       1.0  0.60580  0.14100  0.25869  1.0000 -0.6840083664
O   O34       1.0  0.75869  0.89420  0.85900  1.0000 -0.6840083664
O   O35       1.0  0.89420  0.85900  0.75869  1.0000 -0.6840083664
O   O36       1.0  0.24131  0.39420  0.64100  1.0000 -0.6840083664
O   O37       1.0  0.30125  0.70111  0.08033  1.0000 -0.7084507626
O   O38       1.0  0.19875  0.29889  0.58033  1.0000 -0.7084507626
O   O39       1.0  0.80125  0.79889  0.91967  1.0000 -0.7084507626
O   O40       1.0  0.69875  0.20111  0.41967  1.0000 -0.7084507626
O   O41       1.0  0.08033  0.30125  0.70111  1.0000 -0.7084507626
O   O42       1.0  0.70111  0.08033  0.30125  1.0000 -0.7084507626
O   O43       1.0  0.41967  0.69875  0.20111  1.0000 -0.7084507626
O   O44       1.0  0.29889  0.58033  0.19875  1.0000 -0.7084507626
O   O45       1.0  0.58033  0.19875  0.29889  1.0000 -0.7084507626
O   O46       1.0  0.79889  0.91967  0.80125  1.0000 -0.7084507626
O   O47       1.0  0.91967  0.80125  0.79889  1.0000 -0.7084507626
O   O48       1.0  0.20111  0.41967  0.69875  1.0000 -0.7084507626
O   O49       1.0  0.70547  0.70547  0.70547  1.0000 -0.6074728807
O   O50       1.0  0.79453  0.29453  0.20547  1.0000 -0.6074728807
O   O51       1.0  0.20547  0.79453  0.29453  1.0000 -0.6074728807
O   O52       1.0  0.29453  0.20547  0.79453  1.0000 -0.6074728807
O   O53       1.0  0.75250  0.82697  0.77895  1.0000 -1.181955046
O   O54       1.0  0.74750  0.17303  0.27895  1.0000 -1.181955046
O   O55       1.0  0.25250  0.67303  0.22105  1.0000 -1.1882373415
O   O56       1.0  0.24750  0.32697  0.72105  1.0000 -1.181955046
O   O57       1.0  0.77895  0.75250  0.82697  1.0000 -1.181955046
O   O58       1.0  0.82697  0.77895  0.75250  1.0000 -1.181955046
O   O59       1.0  0.72105  0.24750  0.32697  1.0000 -1.181955046
O   O60       1.0  0.17303  0.27895  0.74750  1.0000 -1.181955046
O   O61       1.0  0.27895  0.74750  0.17303  1.0000 -1.181955046
O   O62       1.0  0.67303  0.22105  0.25250  1.0000 -1.1882373415
O   O63       1.0  0.22105  0.25250  0.67303  1.0000 -1.1882373415
O   O64       1.0  0.32697  0.72105  0.24750  1.0000 -1.181955046
O   O65       1.0  0.82926  0.82926  0.82926  1.0000 -1.1882373415
O   O66       1.0  0.67074  0.17074  0.32926  1.0000 -1.1882373415
O   O67       1.0  0.32926  0.67074  0.17074  1.0000 -1.1882373415
O   O68       1.0  0.17074  0.32926  0.67074  1.0000 -1.1882373415
O   O69       1.0  0.71385  0.83468  0.92608  1.0000 -0.7387822038
O   O70       1.0  0.78615  0.16532  0.42608  1.0000 -0.7387822038
O   O71       1.0  0.21385  0.66532  0.07392  1.0000 -0.7387822038
O   O72       1.0  0.28615  0.33468  0.57392  1.0000 -0.7387822038
O   O73       1.0  0.92608  0.71385  0.83468  1.0000 -0.7387822038
O   O74       1.0  0.83468  0.92608  0.71385  1.0000 -0.7387822038
O   O75       1.0  0.57392  0.28615  0.33468  1.0000 -0.7387822038
O   O76       1.0  0.16532  0.42608  0.78615  1.0000 -0.7387822038
O   O77       1.0  0.42608  0.78615  0.16532  1.0000 -0.7387822038
O   O78       1.0  0.66532  0.07392  0.21385  1.0000 -0.7387822038
O   O79       1.0  0.07392  0.21385  0.66532  1.0000 -0.7387822038
O   O80       1.0  0.33468  0.57392  0.28615  1.0000 -0.7387822038
O   O81       1.0  0.31556  0.20182  0.15652  1.0000 -0.7084507626
O   O82       1.0  0.18444  0.79818  0.65652  1.0000 -0.7084507626
O   O83       1.0  0.81556  0.29818  0.84348  1.0000 -0.7084507626
O   O84       1.0  0.68444  0.70182  0.34348  1.0000 -0.7084507626
O   O85       1.0  0.15652  0.31556  0.20182  1.0000 -0.7084507626
O   O86       1.0  0.20182  0.15652  0.31556  1.0000 -0.7084507626
O   O87       1.0  0.34348  0.68444  0.70182  1.0000 -0.7084507626
O   O88       1.0  0.79818  0.65652  0.18444  1.0000 -0.7084507626
O   O89       1.0  0.65652  0.18444  0.79818  1.0000 -0.7084507626
O   O90       1.0  0.29818  0.84348  0.81556  1.0000 -0.7084507626
O   O91       1.0  0.84348  0.81556  0.29818  1.0000 -0.7084507626
O   O92       1.0  0.70182  0.34348  0.68444  1.0000 -0.7084507626
O   O93       1.0  0.31787  0.24746  0.21811  1.0000 -0.7084507626
O   O94       1.0  0.18213  0.75254  0.71811  1.0000 -0.7084507626
O   O95       1.0  0.81787  0.25254  0.78189  1.0000 -0.7084507626
O   O96       1.0  0.68213  0.74746  0.28189  1.0000 -0.7084507626
O   O97       1.0  0.21811  0.31787  0.24746  1.0000 -0.7084507626
O   O98       1.0  0.24746  0.21811  0.31787  1.0000 -0.7084507626
O   O99       1.0  0.28189  0.68213  0.74746  1.0000 -0.7084507626
O   O100      1.0  0.75254  0.71811  0.18213  1.0000 -0.7084507626
O   O101      1.0  0.71811  0.18213  0.75254  1.0000 -0.7084507626
O   O102      1.0  0.25254  0.78189  0.81787  1.0000 -0.7084507626
O   O103      1.0  0.78189  0.81787  0.25254  1.0000 -0.7084507626
O   O104      1.0  0.74746  0.28189  0.68213  1.0000 -0.7084507626
O   O105      1.0  0.64100  0.25869  0.89420  1.0000 -0.6840083664
O   O106      1.0  0.85900  0.74131  0.39420  1.0000 -0.6840083664
O   O107      1.0  0.14100  0.24131  0.10580  1.0000 -0.6840083664
O   O108      1.0  0.35900  0.75869  0.60580  1.0000 -0.6840083664
O   O109      1.0  0.89420  0.64100  0.25869  1.0000 -0.6840083664
O   O110      1.0  0.25869  0.89420  0.64100  1.0000 -0.6840083664
O   O111      1.0  0.60580  0.35900  0.75869  1.0000 -0.6840083664
O   O112      1.0  0.74131  0.39420  0.85900  1.0000 -0.6840083664
O   O113      1.0  0.39420  0.85900  0.74131  1.0000 -0.6840083664
O   O114      1.0  0.24131  0.10580  0.14100  1.0000 -0.6840083664
O   O115      1.0  0.10580  0.14100  0.24131  1.0000 -0.6840083664
O   O116      1.0  0.75869  0.60580  0.35900  1.0000 -0.6840083664
O   O117      1.0  0.69875  0.29889  0.91967  1.0000 -0.7084507626
O   O118      1.0  0.80125  0.70111  0.41967  1.0000 -0.7084507626
O   O119      1.0  0.19875  0.20111  0.08033  1.0000 -0.7084507626
O   O120      1.0  0.30125  0.79889  0.58033  1.0000 -0.7084507626
O   O121      1.0  0.91967  0.69875  0.29889  1.0000 -0.7084507626
O   O122      1.0  0.29889  0.91967  0.69875  1.0000 -0.7084507626
O   O123      1.0  0.58033  0.30125  0.79889  1.0000 -0.7084507626
O   O124      1.0  0.70111  0.41967  0.80125  1.0000 -0.7084507626
O   O125      1.0  0.41967  0.80125  0.70111  1.0000 -0.7084507626
O   O126      1.0  0.20111  0.08033  0.19875  1.0000 -0.7084507626
O   O127      1.0  0.08033  0.19875  0.20111  1.0000 -0.7084507626
O   O128      1.0  0.79889  0.58033  0.30125  1.0000 -0.7084507626
O   O129      1.0  0.29453  0.29453  0.29453  1.0000 -0.6074728807
O   O130      1.0  0.20547  0.70547  0.79453  1.0000 -0.6074728807
O   O131      1.0  0.79453  0.20547  0.70547  1.0000 -0.6074728807
O   O132      1.0  0.70547  0.79453  0.20547  1.0000 -0.6074728807
O   O133      1.0  0.24750  0.17303  0.22105  1.0000 -1.181955046
O   O134      1.0  0.25250  0.82697  0.72105  1.0000 -1.181955046
O   O135      1.0  0.74750  0.32697  0.77895  1.0000 -1.181955046
O   O136      1.0  0.75250  0.67303  0.27895  1.0000 -1.1882373415
O   O137      1.0  0.22105  0.24750  0.17303  1.0000 -1.181955046
O   O138      1.0  0.17303  0.22105  0.24750  1.0000 -1.181955046
O   O139      1.0  0.27895  0.75250  0.67303  1.0000 -1.1882373415
O   O140      1.0  0.82697  0.72105  0.25250  1.0000 -1.181955046
O   O141      1.0  0.72105  0.25250  0.82697  1.0000 -1.181955046
O   O142      1.0  0.32697  0.77895  0.74750  1.0000 -1.181955046
O   O143      1.0  0.77895  0.74750  0.32697  1.0000 -1.181955046
O   O144      1.0  0.67303  0.27895  0.75250  1.0000 -1.1882373415
O   O145      1.0  0.17074  0.17074  0.17074  1.0000 -1.1882373415
O   O146      1.0  0.32926  0.82926  0.67074  1.0000 -1.1882373415
O   O147      1.0  0.67074  0.32926  0.82926  1.0000 -1.1882373415
O   O148      1.0  0.82926  0.67074  0.32926  1.0000 -1.1882373415
O   O149      1.0  0.28615  0.16532  0.07392  1.0000 -0.7387822038
O   O150      1.0  0.21385  0.83468  0.57392  1.0000 -0.7387822038
O   O151      1.0  0.78615  0.33468  0.92608  1.0000 -0.7387822038
O   O152      1.0  0.71385  0.66532  0.42608  1.0000 -0.7387822038
O   O153      1.0  0.07392  0.28615  0.16532  1.0000 -0.7387822038
O   O154      1.0  0.16532  0.07392  0.28615  1.0000 -0.7387822038
O   O155      1.0  0.42608  0.71385  0.66532  1.0000 -0.7387822038
O   O156      1.0  0.83468  0.57392  0.21385  1.0000 -0.7387822038
O   O157      1.0  0.57392  0.21385  0.83468  1.0000 -0.7387822038
O   O158      1.0  0.33468  0.92608  0.78615  1.0000 -0.7387822038
O   O159      1.0  0.92608  0.78615  0.33468  1.0000 -0.7387822038
O   O160      1.0  0.66532  0.42608  0.71385  1.0000 -0.7387822038
